<?xml version="1.0" encoding="UTF-8"?>

<!-- generated on 2022-04-29 00:22:26 by Eclipse SUMO netedit Version 1.12.0
-->

<routes xmlns:xsi="http://www.w3.org/2001/XMLSchema-instance" xsi:noNamespaceSchemaLocation="http://sumo.dlr.de/xsd/routes_file.xsd">
    <route id="r_0" edges="-406769344#2 -406769344#0 406769345 192748775"/>
    <route id="r_1" edges="-406769344#2 -406769344#0 406769345 -192748755#2"/>
    <route id="r_2" edges="193714501#0 422972291"/>
    <route id="r_3" edges="193714501#0 422972291"/>
    <route id="r_4" edges="193714501#0 -192748755#2"/>
    <route id="r_5" edges="193714501#0 192748767#0"/>
    <route id="r_6" edges="192748755#0 192748775"/>
    <route id="r_7" edges="192748755#0 422972291"/>
    <route id="r_8" edges="192748755#0 192748767#0"/>
    <flow  id="f_0" route = "r_0" begin = "0.00" end = "500.0" probability = "0.07"/>
    <flow  id="f_1" route = "r_1" begin = "0.00" end = "500.0" probability = "0.07"/>
    <flow  id="f_2" route = "r_2" begin = "0.00" end = "500.0" probability = "0.07"/>
    <flow  id="f_3" route = "r_3" begin = "0.00" end = "500.0" probability = "0.07"/>
    <flow  id="f_4" route = "r_4" begin = "0.00" end = "500.0" probability = "0.07"/>
    <flow  id="f_5" route = "r_5" begin = "0.00" end = "500.0" probability = "0.07"/>
    <flow  id="f_6" route = "r_6" begin = "0.00" end = "500.0" probability = "0.07"/>
    <flow  id="f_7" route = "r_7" begin = "0.00" end = "500.0" probability = "0.07"/>
    <flow  id="f_8" route = "r_8" begin = "0.00" end = "500.0" probability = "0.07"/>
</routes>
