<?xml version="1.0" encoding="UTF-8"?>

<!-- generated on 2024-09-30 16:25:49 by Eclipse SUMO netedit Version 1.19.0
-->

<routes xmlns:xsi="http://www.w3.org/2001/XMLSchema-instance" xsi:noNamespaceSchemaLocation="http://sumo.dlr.de/xsd/routes_file.xsd">
    <!-- VTypes -->
    <vType id="type1" length="5.00"/>
    <!-- Routes -->
    <route id="r_0" edges="-406769344#2 -406769344#0 406769345 192748775"/>
    <route id="r_1" edges="-406769344#2 -406769344#0 406769345 -192748755#2"/>
    <route id="r_2" edges="193714501#0 422972291"/>
    <route id="r_3" edges="193714501#0 422972291"/>
    <route id="r_4" edges="192748755#0 192748775"/>
    <route id="r_5" edges="192748755#0 192748767#0"/>
    <route id="r_6" edges="192748755#0 422972291"/>
    <route id="r_7" edges="193714501#0 -192748755#2"/>
    <route id="r_8" edges="193714501#0 192748767#0"/>
    <!-- Vehicles, persons and containers (sorted by depart) -->
    <flow id="f_0" type="type1" begin="0.00" route="r_0" end="500.00" vehsPerHour="450"/>
    <flow id="f_1" type="type1" begin="0.00" route="r_1" end="500.00" vehsPerHour="450"/>
    <flow id="f_2" type="type1" begin="0.00" route="r_2" end="500.00" vehsPerHour="450"/>
    <flow id="f_3" type="type1" begin="0.00" route="r_3" end="500.00" vehsPerHour="450"/>
    <flow id="f_4" type="type1" begin="0.00" route="r_4" end="500.00" vehsPerHour="450"/>
    <flow id="f_5" type="type1" begin="0.00" route="r_5" end="500.00" vehsPerHour="450"/>
    <flow id="f_6" type="type1" begin="0.00" route="r_6" end="500.00" vehsPerHour="450"/>
    <flow id="f_7" type="type1" begin="0.00" route="r_7" end="500.00" vehsPerHour="450"/>
    <flow id="f_8" type="type1" begin="0.00" route="r_8" end="500.00" vehsPerHour="450"/>
</routes>
