<?xml version="1.0" encoding="UTF-8"?>

<!-- generated on 2022-04-15 11:10:00 by Eclipse SUMO polyconvert Version 1.12.0
<configuration xmlns:xsi="http://www.w3.org/2001/XMLSchema-instance" xsi:noNamespaceSchemaLocation="http://sumo.dlr.de/xsd/polyconvertConfiguration.xsd">

    <input>
        <net-file value="osm.net.xml"/>
        <osm-files value="osm_bbox.osm.xml"/>
        <osm.keep-full-type value="true"/>
        <type-file value="C:\Program%20Files%20(x86)\Eclipse\Sumo\data\typemap\osmPolyconvert.typ.xml"/>
    </input>

    <output>
        <output-file value="osm.poly.xml"/>
    </output>

    <processing>
        <poi-layer-offset value="5"/>
    </processing>

    <report>
        <verbose value="true"/>
    </report>

</configuration>
-->

<additional xmlns:xsi="http://www.w3.org/2001/XMLSchema-instance" xsi:noNamespaceSchemaLocation="http://sumo.dlr.de/xsd/additional_file.xsd">
    <location netOffset="-506413.37,-5071731.34" convBoundary="-94.85,0.00,711.29,663.14" origBoundary="9.081314,45.799111,9.091685,45.805080" projParameter="+proj=utm +zone=32 +ellps=WGS84 +datum=WGS84 +units=m +no_defs"/>

    <poly id="109396976" type="leisure.playground" color="207,245,201" fill="1" layer="-2.00" shape="90.303261,417.597756 97.018007,424.182097 121.836614,432.474238 135.244258,436.776944 137.323583,432.457225 140.407555,426.027607 110.987312,396.865389 100.377332,407.086849 90.303261,417.597756"/>
    <poly id="109524240" type="amenity.motorcycle_parking" color="237,199,199" fill="1" layer="-1.00" shape="148.849644,401.004988 140.062200,392.474099 144.616305,384.679467 155.046993,389.790124 148.849644,401.004988"/>
    <poly id="112870952" type="building.school" color="255,230,230" fill="1" layer="-1.00" shape="262.636224,292.545189 263.387365,266.081236 235.980293,265.307440 235.221499,291.771388 262.636224,292.545189"/>
    <poly id="112870952#1" type="leisure.garden" color="207,245,201" fill="1" layer="-2.00" shape="262.636224,292.545189 263.387365,266.081236 235.980293,265.307440 235.221499,291.771388 262.636224,292.545189"/>
    <poly id="115719503" type="amenity.parking" color="184,184,179" fill="1" layer="-1.00" shape="157.742022,354.406631 163.920644,346.258203 166.374254,348.105114 161.923163,353.966644 168.903520,359.218106 167.168216,361.504991 157.742022,354.406631"/>
    <poly id="119769785" type="building.yes" color="255,230,230" fill="1" layer="-1.00" shape="159.039563,405.970963 168.274131,410.502641 171.124306,404.750520 161.889744,400.207728 159.039563,405.970963"/>
    <poly id="289200874" type="building.yes" color="255,230,230" fill="1" layer="-1.00" shape="237.792606,358.047150 238.131235,346.603891 235.419568,346.289899 220.974201,345.807817 220.466795,355.239930 237.792606,358.047150"/>
    <poly id="406769346" type="waterway.river" color="181,209,209" fill="0" layer="-4.00" shape="711.290127,329.785499 611.935922,271.920905 552.072812,247.821871 507.682078,243.828081 351.152887,336.337831 343.613159,338.229486 269.850594,340.282847 169.743417,336.609512 142.507926,342.891358 109.483951,378.109602 -5.501170,500.025566 -79.638747,567.022474 -94.851641,580.572670"/>
    <poly id="59047797" type="building.yes" color="255,230,230" fill="1" layer="-1.00" shape="79.679355,508.091252 100.006394,516.256400 104.244575,505.783820 99.894884,504.034937 111.090289,476.359787 119.192807,456.325299 124.598888,458.497500 128.463175,448.957810 125.519341,447.777016 108.400049,440.892840 104.613693,450.243749 108.481851,451.792144 89.074917,499.779458 83.886343,497.696398 79.679355,508.091252"/>
    <poly id="59047798" type="building.public" color="255,230,230" fill="1" layer="-1.00" shape="145.112071,445.020099 172.573838,459.425909 179.991010,448.356797 150.579796,432.982297 146.646914,441.210883 145.112071,445.020099"/>
    <poly id="59047799" type="building.yes" color="255,230,230" fill="1" layer="-1.00" shape="149.352000,499.187359 156.576464,486.562571 132.818693,474.693886 129.276299,481.111914 125.788330,487.507781 149.352000,499.187359"/>
    <poly id="59047801" type="building.yes" color="255,230,230" fill="1" layer="-1.00" shape="162.667726,436.039311 170.896721,421.515741 160.055299,415.415804 151.826321,429.939389 162.667726,436.039311"/>
    <poly id="59047802" type="building.yes" color="255,230,230" fill="1" layer="-1.00" shape="136.713925,465.287558 161.000902,476.423536 166.850074,463.741753 142.570828,452.605760 140.000643,458.169314 139.595644,459.046602 136.713925,465.287558"/>
    <poly id="60903741" type="building.yes" color="255,230,230" fill="1" layer="-1.00" shape="33.386223,421.926982 45.898321,405.741148 20.360789,386.127158 7.848707,402.324153 33.386223,421.926982"/>
    <poly id="72125842" type="building.yes" color="255,230,230" fill="1" layer="-1.00" shape="253.302199,467.422593 261.095774,467.764274 262.781860,460.666596 272.315848,461.210148 270.890711,471.319000 257.869606,469.027383 253.557221,483.210623 270.077089,483.628352 267.982387,494.947509 262.008609,493.263427 263.553446,487.443283 255.970931,485.957463 254.350901,489.444362 248.951399,488.449749 247.169443,490.769893 246.093086,494.512915 242.535086,493.642495 243.875355,490.166404 246.159766,490.302177 248.112342,488.293304 253.302199,467.422593"/>
    <poly id="72125848" type="building.yes" color="255,230,230" fill="1" layer="-1.00" shape="212.602071,588.948100 200.144333,583.213007 203.267255,576.683468 215.227526,582.573581 213.917723,586.660779 221.683375,591.179860 232.594339,597.302202 229.632306,605.953969 236.351292,608.249886 238.486690,602.374816 238.004851,595.185925 234.725717,595.182413 235.739907,584.162065 231.543673,584.324228 230.030308,582.567179 230.291655,577.967788 223.577780,578.127263 224.082252,571.428282 222.070229,570.926168 226.617153,555.287703 227.614142,553.077817 230.124078,553.024950 229.968326,546.080836 227.947812,546.245329 227.880491,536.534842 229.807584,536.536903 229.561256,534.359018 235.769999,534.287890 235.851002,538.465456 245.330062,539.397769 245.159697,546.097106 247.172084,546.265919 245.567284,557.307852 250.850693,557.813484 251.619572,550.948134 249.855844,550.779587 250.871166,538.737094 244.834630,537.641808 245.089565,531.786945 228.555115,530.591545 226.300966,516.701240 228.080354,502.237513 222.588004,500.876183 230.628682,488.107919 244.032658,466.657147 251.615875,453.032926 257.674024,441.318050 292.155250,453.121009 239.470602,663.138193 225.565121,659.856878 227.245258,650.970420 220.898083,649.808163 219.187882,657.750213 211.318736,655.630852 200.148117,652.619159 190.453448,649.997917 190.773382,648.731681 173.526533,638.158561 161.015829,631.134693 149.615611,624.734202 154.838273,616.506979 163.291403,602.883568 170.864657,591.003555 177.575723,578.833768 183.109788,570.129157 196.523347,546.656213 205.553234,531.578024 214.943444,513.844866 223.774679,517.498482 226.786367,535.111551 215.962722,534.433368 215.453082,538.699185 226.359238,542.143924 226.852608,553.099223 225.497463,555.975346 221.472659,555.671066 209.651535,550.414378 205.245974,557.398069 206.488118,558.465983 193.429129,584.627980 207.122125,590.597693 205.915560,592.607374 210.342875,594.345304 212.602071,588.948100"/>
    <poly id="80450692" type="building.yes" color="255,230,230" fill="1" layer="-1.00" shape="200.432247,356.651791 201.066593,344.742212 220.974201,345.807817 220.466795,355.239930 214.118427,354.910952 213.983704,357.366187 200.432247,356.651791"/>
    <poly id="80450694" type="building.apartments" color="255,230,230" fill="1" layer="-1.00" shape="275.256561,349.821315 275.313182,347.754858 276.742956,347.800839 286.922354,348.100682 286.543271,360.943794 286.253060,370.642783 286.107841,375.597826 274.055801,375.240416 274.587802,357.475600 271.059985,357.371809 270.995379,359.638243 242.741769,358.807954 242.596549,363.796328 237.623423,363.646566 237.792606,358.047150 238.131235,346.603891 270.969525,347.561306 270.905062,349.694416 275.256561,349.821315"/>
    <poly id="80450697" type="building.yes" color="255,230,230" fill="1" layer="-1.00" shape="164.205480,480.848835 170.299345,471.911490 183.204819,480.669002 177.103185,489.595216 164.205480,480.848835"/>
    <poly id="80450700" type="building.yes" color="255,230,230" fill="1" layer="-1.00" shape="172.978706,385.409432 169.499104,391.149775 167.879957,393.825644 174.426496,397.765636 172.231303,401.396380 176.517996,403.978519 180.402394,397.560882 183.811949,391.931575 172.978706,385.409432"/>
    <poly id="80450705" type="building.yes" color="255,230,230" fill="1" layer="-1.00" shape="164.301964,580.497352 167.719339,574.712498 173.510068,565.774834 186.921450,544.323944 195.663795,529.256545 216.114837,493.847551 231.520721,467.799219 240.978073,452.832643 250.466768,437.666129 265.853637,407.884799 270.866910,399.579679 264.211895,395.406152 257.664971,406.342774 227.588558,388.078514 226.405175,390.165988 213.156736,382.274625 214.145492,380.520251 208.918848,377.648215 206.093808,381.644915 203.167611,385.774833 233.446431,403.772543 231.943833,406.437410 237.364400,409.598542 245.836948,414.529490 234.657618,433.782796 230.999656,431.890127 234.269889,425.771845 229.766096,422.778351 227.921499,425.531735 222.309904,433.891803 226.751729,436.696350 223.739331,441.515005 228.437510,444.386489 223.206871,452.580309 216.707071,463.172605 220.737296,465.732282 219.562152,467.397573 194.045612,450.716011 189.445637,457.788388 211.544632,473.021944 202.304011,488.877622 174.093230,536.122021 168.308491,532.049511 161.927437,540.742128 167.152694,544.814039 169.930905,540.917263 171.802401,542.052499 153.571891,572.231031 164.301964,580.497352"/>
    <poly id="80452121" type="building.yes" color="255,230,230" fill="1" layer="-1.00" shape="237.364400,409.598542 227.921499,425.531735 180.402394,397.560882 183.811949,391.931575 172.978706,385.409432 169.499104,391.149775 167.557637,390.003355 181.056200,367.285975 206.093808,381.644915 203.167611,385.774833 233.446431,403.772543 231.943833,406.437410 237.364400,409.598542"/>
    <poly id="80452125" type="building.yes" color="255,230,230" fill="1" layer="-1.00" shape="241.830407,368.095198 259.467229,370.691716 282.717976,384.493531 273.260622,399.271167 263.266234,393.205293 265.632617,389.408111 250.584267,378.859368 243.828589,388.818073 233.499763,382.985205 241.830407,368.095198"/>
    <poly id="80452128" type="building.yes" color="255,230,230" fill="1" layer="-1.00" shape="171.074465,429.770892 178.049259,418.212455 218.881414,442.687508 211.906571,454.245900 171.074465,429.770892"/>
    <poly id="80452129" type="building.yes" color="255,230,230" fill="1" layer="-1.00" shape="183.575104,351.545338 180.437457,357.219375 182.573484,358.099358 182.081849,360.054251 191.379201,364.052734 193.251817,356.877464 196.749143,356.425663 200.432247,356.651791 201.066593,344.742212 194.320863,345.390539 190.598344,345.686558 189.751282,345.730099 188.919644,345.884759 188.111200,346.150547 187.349275,346.516377 186.649398,346.993377 186.019375,347.548223 185.466965,348.192034 185.007734,348.902606 183.575104,351.545338"/>
    <poly id="80454670" type="building.yes" color="255,230,230" fill="1" layer="-1.00" shape="129.360433,371.753192 151.016523,350.633122 165.043917,364.224767 155.327726,388.857155 144.656672,383.246279 152.117307,367.855270 150.580179,366.453745 138.762676,379.462552 129.360433,371.753192"/>
    <poly id="80454671" type="building.yes" color="255,230,230" fill="1" layer="-1.00" shape="9.750092,517.373412 1.583579,509.509979 33.150383,476.945007 41.324658,484.819601 9.750092,517.373412"/>
    <poly id="80454672" type="building.yes" color="255,230,230" fill="1" layer="-1.00" shape="111.431409,395.754824 141.457651,425.028788 150.326333,408.117148 138.937227,398.150281 141.932034,395.231430 127.424185,380.394976 111.431409,395.754824"/>
    <poly id="80454673" type="building.yes" color="255,230,230" fill="1" layer="-1.00" shape="43.272198,472.644722 53.635427,482.777001 61.569863,474.708071 66.887317,479.902134 58.945111,487.971049 71.373164,500.116478 81.439008,489.883288 72.737051,481.374802 82.406196,471.552281 79.347698,468.560409 93.746458,453.932087 91.347787,451.585297 102.907305,439.831595 88.973229,426.206856 78.533884,436.817393 84.053184,442.211667 69.094343,457.406052 71.593946,459.841821 66.864382,464.647649 58.853250,456.817634 43.272198,472.644722"/>
    <poly id="80506289" type="building.yes" color="255,230,230" fill="1" layer="-1.00" shape="261.672875,328.474901 261.946890,312.120816 225.207081,311.514808 224.940934,327.868902 230.380395,327.963601 243.458429,328.177592 248.812424,328.261105 261.672875,328.474901"/>
    <poly id="80506293" type="building.yes" color="255,230,230" fill="1" layer="-1.00" shape="203.349243,324.701641 208.742071,324.807382 214.422383,324.946766 214.691946,312.647939 215.141564,291.827696 204.068365,291.582570 203.349243,324.701641"/>
    <poly id="80506302" type="building.school" color="255,230,230" fill="1" layer="-1.00" shape="279.731485,285.897403 279.479933,295.785309 267.202335,295.472111 267.129278,298.371824 218.609482,297.119906 219.905635,247.669298 274.727821,249.105774 274.347011,263.570988 274.233314,268.126093 290.427364,268.554634 289.965416,286.163978 279.731485,285.897403"/>
    <poly id="80506518" type="building.yes" color="255,230,230" fill="1" layer="-1.00" shape="47.341143,266.252693 64.021400,277.369268 72.217411,264.645407 55.319329,253.739679 52.439381,258.269686 47.341143,266.252693"/>
    <poly id="80506520" type="building.yes" color="255,230,230" fill="1" layer="-1.00" shape="32.925316,326.955559 41.413902,316.720670 3.602182,285.594836 -4.886395,295.840887 32.925316,326.955559"/>
    <poly id="80506521" type="building.yes" color="255,230,230" fill="1" layer="-1.00" shape="55.319329,253.739679 41.418874,244.648093 38.445646,249.211341 52.439381,258.269686 55.319329,253.739679"/>
    <poly id="80506522" type="building.yes" color="255,230,230" fill="1" layer="-1.00" shape="35.978962,282.328612 67.048079,303.503876 86.917326,274.548951 72.217411,264.645407 64.021400,277.369268 47.341143,266.252693 35.978962,282.328612"/>
    <poly id="80506524" type="building.yes" color="255,230,230" fill="1" layer="-1.00" shape="41.418874,244.648093 29.809160,237.136579 16.632041,257.377016 28.241733,264.888506 38.445646,249.211341 41.418874,244.648093"/>
    <poly id="90264838" type="landuse.meadow" color="194,194,130" fill="1" layer="-3.00" shape="270.829420,434.410471 287.499027,440.205799 290.462801,437.286985 290.962983,413.044821 289.658851,411.799058 287.793669,411.997030 270.829420,434.410471"/>
    <poly id="985743971" type="landuse.brownfield" color="194,194,130" fill="1" layer="-3.00" shape="222.407381,204.486196 214.355921,227.031527 190.952826,268.103633 174.506354,293.184356 155.146275,310.618148 126.673164,333.519779 87.832269,365.554466 60.191230,388.357282 54.716657,384.718506 43.068096,362.519092 28.833589,361.048858 8.409673,348.295288 102.623290,288.375526 86.917326,274.548951 72.217411,264.645407 55.319329,253.739679 41.418874,244.648093 29.809160,237.136579 66.963569,190.867469 114.799997,162.908480 132.686447,157.827676 174.769162,126.018921 237.381342,89.010557 230.855266,152.843402 224.280209,160.835793 203.473738,164.091132 173.172740,173.147155 171.705233,179.334041 178.977523,209.895106 181.521366,214.630799 204.521394,209.188993 222.050313,196.841922 222.407381,204.486196"/>
    <poly id="985743973" type="amenity.parking" color="184,184,179" fill="1" layer="-1.00" shape="-3.765397,482.128642 -8.505730,474.846496 49.219948,409.810978 60.191230,388.357282 87.832269,365.554466 95.231159,379.305672 60.890589,418.178090 -3.765397,482.128642"/>
    <poi id="1253821577" type="amenity.drinking_water" color="237,199,199" layer="4.00" x="114.76" y="419.96"/>
    <poi id="1281829192" type="amenity.post_office" color="237,199,199" layer="4.00" x="272.96" y="451.76"/>
    <poi id="1306629974" type="natural.tree" color="140,196,107" layer="1.00" x="158.31" y="352.02"/>
    <poi id="1306629984" type="natural.tree" color="140,196,107" layer="1.00" x="159.82" y="348.64"/>
    <poi id="1306629987" type="natural.tree" color="140,196,107" layer="1.00" x="155.96" y="349.29"/>
    <poi id="2917311401" type="amenity.restaurant" color="237,199,199" layer="4.00" x="70.13" y="445.06"/>
    <poi id="3665934114" type="shop.musical_instrument" color="237,199,255" layer="4.00" x="205.75" y="321.72"/>
    <poi id="3665935039" type="amenity.driving_school" color="237,199,199" layer="4.00" x="226.30" y="325.74"/>
    <poi id="3665935040" type="shop.hairdresser" color="237,199,255" layer="4.00" x="229.15" y="325.64"/>
    <poi id="3665935044" type="shop.jewelry" color="237,199,255" layer="4.00" x="255.75" y="324.96"/>
    <poi id="8475832794" type="amenity.post_box" color="237,199,199" layer="4.00" x="273.00" y="444.88"/>
    <poi id="9015401200" type="shop.laundry" color="237,199,255" layer="4.00" x="236.54" y="457.46"/>
</additional>
