<?xml version="1.0" encoding="UTF-8"?>

<!-- generated on 2022-04-15 11:10:01 by Eclipse SUMO duarouter Version 1.12.0
<configuration xmlns:xsi="http://www.w3.org/2001/XMLSchema-instance" xsi:noNamespaceSchemaLocation="http://sumo.dlr.de/xsd/duarouterConfiguration.xsd">

    <input>
        <net-file value="C:\Users\ricca\AppData\Roaming\Microsoft\Windows\Start%20Menu\Programs\SUMO\2022-04-15-11-09-49\osm.net.xml"/>
        <route-files value="C:\Users\ricca\AppData\Roaming\Microsoft\Windows\Start%20Menu\Programs\SUMO\2022-04-15-11-09-49\osm.passenger.trips.xml"/>
    </input>

    <output>
        <output-file value="C:\Users\ricca\AppData\Roaming\Microsoft\Windows\Start%20Menu\Programs\SUMO\2022-04-15-11-09-49\osm.passenger.trips.xml.tmp"/>
        <write-trips value="true"/>
    </output>

    <time>
        <begin value="0"/>
        <end value="3600"/>
    </time>

    <report>
        <no-warnings value="true"/>
        <ignore-errors value="true"/>
        <no-step-log value="true"/>
    </report>

</configuration>
-->

<routes xmlns:xsi="http://www.w3.org/2001/XMLSchema-instance" xsi:noNamespaceSchemaLocation="http://sumo.dlr.de/xsd/routes_file.xsd">
    <vType id="veh_passenger" vClass="passenger"/>
    <trip id="veh0" type="veh_passenger" depart="0.00" departLane="best" departSpeed="max" from="193714501#0" to="406769344#0"/>
    <trip id="veh1" type="veh_passenger" depart="97.86" departLane="best" departSpeed="max" from="-406769344#2" to="192748775"/>
    <trip id="veh2" type="veh_passenger" depart="195.71" departLane="best" departSpeed="max" from="192748755#0" to="192748775"/>
    <trip id="veh3" type="veh_passenger" depart="293.57" departLane="best" departSpeed="max" from="-406769344#2" to="192748775"/>
    <trip id="veh4" type="veh_passenger" depart="391.43" departLane="best" departSpeed="max" from="193714501#0" to="-192748755#2"/>
    <trip id="veh5" type="veh_passenger" depart="489.28" departLane="best" departSpeed="max" from="193714501#0" to="406769344#0"/>
    <trip id="veh7" type="veh_passenger" depart="685.00" departLane="best" departSpeed="max" from="-406769344#2" to="-192748755#2"/>
    <trip id="veh8" type="veh_passenger" depart="782.86" departLane="best" departSpeed="max" from="193714501#0" to="406769344#1"/>
    <trip id="veh10" type="veh_passenger" depart="978.57" departLane="best" departSpeed="max" from="193714501#0" to="-192748755#2"/>
    <trip id="veh13" type="veh_passenger" depart="1272.14" departLane="best" departSpeed="max" from="192748755#0" to="192748775"/>
    <trip id="veh14" type="veh_passenger" depart="1370.00" departLane="best" from="422972291" to="192748775"/>
    <trip id="veh15" type="veh_passenger" depart="1467.85" departLane="best" departSpeed="max" from="193714501#0" to="406769344#1"/>
    <trip id="veh16" type="veh_passenger" depart="1565.71" departLane="best" departSpeed="max" from="-406769344#2" to="-192748755#2"/>
    <trip id="veh18" type="veh_passenger" depart="1761.42" departLane="best" departSpeed="max" from="192748755#0" to="406769344#1"/>
    <trip id="veh19" type="veh_passenger" depart="1859.28" departLane="best" from="422972291" to="192748775"/>
    <trip id="veh20" type="veh_passenger" depart="1957.14" departLane="best" departSpeed="max" from="-406769344#2" to="-192748755#2"/>
    <trip id="veh21" type="veh_passenger" depart="2055.00" departLane="best" departSpeed="max" from="-406769344#2" to="192748775"/>
    <trip id="veh22" type="veh_passenger" depart="2152.85" departLane="best" departSpeed="max" from="193714501#0" to="192748767#1"/>
    <trip id="veh23" type="veh_passenger" depart="2250.71" departLane="best" from="422972291" to="192748775"/>
    <trip id="veh28" type="veh_passenger" depart="2739.99" departLane="best" departSpeed="max" from="-406769344#2" to="192748775"/>
    <trip id="veh29" type="veh_passenger" depart="2837.85" departLane="best" departSpeed="max" from="193714501#0" to="-192748755#2"/>
    <trip id="veh30" type="veh_passenger" depart="2935.71" departLane="best" departSpeed="max" from="192748755#0" to="192748775"/>
    <trip id="veh31" type="veh_passenger" depart="3033.56" departLane="best" departSpeed="max" from="192748755#0" to="406769344#1"/>
    <trip id="veh33" type="veh_passenger" depart="3229.28" departLane="best" from="422972291" to="192748775"/>
    <trip id="veh36" type="veh_passenger" depart="3522.85" departLane="best" departSpeed="max" from="-406769344#2" to="192748775"/>
</routes>
